Examples/InverterModels/PVSystem2/InvControl2/volt-var/SnapShot_voltvar_greater_kvA_qpriority_Power_elem_kVA.txt

CIRCUIT ELEMENT POWER FLOW

(Power Flow into element from indicated Bus)

Power Delivery Elements

  Bus Phase     kW     +j   kvar         kVA         PF

ELEMENT = "Vsource.SOURCE"
A        1       312.7 +j   -115.5      333.3      -0.9380
A        2       312.7 +j   -115.5      333.3      -0.9380
A        3       312.7 +j   -115.5      333.3      -0.9380
   TERMINAL TOTAL   938.0 +j   -346.6     1000.0      -0.9380
A        0         0.0 +j      0.0        0.0       1.0000
A        0         0.0 +j      0.0        0.0       1.0000
A        0         0.0 +j      0.0        0.0       1.0000
   TERMINAL TOTAL     0.0 +j      0.0        0.0       1.0000

= = = = = = = = = = = = = = = = = = =  = = = = = = = = = = =  = =

Power Conversion Elements

  Bus Phase     kW   +j  kvar         kVA         PF

ELEMENT = "PVSystem.PV"
A        1    -312.7 +j  115.5      333.3      -0.9380
A        2    -312.7 +j  115.5      333.3      -0.9380
A        3    -312.7 +j  115.5      333.3      -0.9380
A        0       0.0 +j    0.0        0.0       1.0000
  TERMINAL TOTAL   -938.0 +j    346.6     1000.0      -0.9380


Total Circuit Losses =    0.0 +j    0.0
